@<TRIPOS>MOLECULE
ligand_0X5_h.pdb
 36 38 0 0 0
SMALL
GASTEIGER

@<TRIPOS>ATOM
      1  C4        -6.7680   -6.0290  -15.4960 C.ar  1201  0X51201     0.0735
      2  C5        -7.3630   -4.7560  -15.5870 C.ar  1201  0X51201     0.0545
      3  C6        -6.5920   -3.6260  -15.8250 C.ar  1201  0X51201    -0.0426
      4  C11       -8.7620   -9.1860  -16.0280 C.ar  1201  0X51201     0.0384
      5  C8        -7.6480   -7.1690  -15.1630 C.2   1201  0X51201     0.2511
      6  C12       -9.5760   -9.5140  -14.9230 C.ar  1201  0X51201    -0.0222
      7  C13      -10.4480  -10.5960  -15.0330 C.ar  1201  0X51201     0.0314
      8  C3        -5.3790   -6.1530  -15.6880 C.ar  1201  0X51201     0.0545
      9  C1        -5.2250   -3.7570  -16.0030 C.ar  1201  0X51201    -0.0590
     10  C2        -4.6220   -5.0120  -15.9350 C.ar  1201  0X51201    -0.0426
     11 CL1        -9.0780   -4.6020  -15.4470 Cl    1201  0X51201    -0.0827
     12  O9        -8.1400   -7.2160  -14.0310 O.2   1201  0X51201    -0.2698
     13  N10       -7.9150   -8.0780  -16.1160 N.am  1201  0X51201    -0.2813
     14  N14      -10.4840  -11.3230  -16.1490 N.ar  1201  0X51201    -0.2400
     15  C15       -9.7280  -11.0610  -17.2160 C.ar  1201  0X51201     0.1266
     16  C16       -8.8640   -9.9630  -17.1810 C.ar  1201  0X51201    -0.0003
     17  N17       -9.8320  -11.8770  -18.3640 N.am  1201  0X51201    -0.2701
     18  C18       -8.8750  -11.9800  -19.3360 C.2   1201  0X51201     0.2213
     19  O19       -7.8420  -11.3390  -19.2710 O.2   1201  0X51201    -0.2751
     20  C20       -9.0940  -12.9030  -20.5280 C.3   1201  0X51201     0.0360
     21  C21       -8.4480  -12.5430  -21.8730 C.3   1201  0X51201    -0.0412
     22  C22       -7.9000  -13.7090  -21.0550 C.3   1201  0X51201    -0.0412
     23 CL2        -4.5810   -7.6960  -15.6770 Cl    1201  0X51201    -0.0827
     24  H         -7.0350   -2.6950  -15.8690 H     1201  0X51201     0.0632
     25  H         -9.5270   -8.9640  -14.0510 H     1201  0X51201     0.0651
     26  H        -11.0700  -10.8350  -14.2450 H     1201  0X51201     0.0831
     27  H         -4.6490   -2.9210  -16.1870 H     1201  0X51201     0.0618
     28  H         -3.6020   -5.0960  -16.0690 H     1201  0X51201     0.0632
     29  H         -7.4600   -7.9480  -16.9790 H     1201  0X51201     0.1551
     30  H         -8.2990   -9.7270  -18.0120 H     1201  0X51201     0.0671
     31  H        -10.6520  -12.4100  -18.4730 H     1201  0X51201     0.1562
     32  H        -10.0870  -13.1360  -20.2050 H     1201  0X51201     0.0394
     33  H         -8.9740  -12.7310  -22.7860 H     1201  0X51201     0.0273
     34  H         -8.0290  -11.6540  -22.2960 H     1201  0X51201     0.0273
     35  H         -6.9460  -13.6250  -20.5780 H     1201  0X51201     0.0273
     36  H         -7.7140  -14.7450  -21.2470 H     1201  0X51201     0.0273
@<TRIPOS>BOND
     1     1     8   ar
     2     1     2   ar
     3     1     5    1
     4     2     3   ar
     5     2    11    1
     6     3     9   ar
     7     3    24    1
     8     4    16   ar
     9     4    13    1
    10     4     6   ar
    11     5    13   am
    12     5    12    2
    13     6     7   ar
    14     6    25    1
    15     7    14   ar
    16     7    26    1
    17     8    10   ar
    18     8    23    1
    19     9    10   ar
    20     9    27    1
    21    10    28    1
    22    13    29    1
    23    14    15   ar
    24    15    17    1
    25    15    16   ar
    26    16    30    1
    27    17    18   am
    28    17    31    1
    29    18    20    1
    30    18    19    2
    31    20    21    1
    32    20    22    1
    33    20    32    1
    34    21    22    1
    35    21    33    1
    36    21    34    1
    37    22    35    1
    38    22    36    1
