@<TRIPOS>MOLECULE
ligand_0X6_h.pdb
 37 39 0 0 0
SMALL
GASTEIGER

@<TRIPOS>ATOM
      1  C4        -9.6390  -10.8520  -17.2860 C.ar  1201  0X61201     0.1266
      2  C14       -4.6160   -4.8750  -16.1640 C.ar  1201  0X61201    -0.0252
      3  C5        -8.8460   -9.7030  -17.2500 C.ar  1201  0X61201    -0.0003
      4  C6        -8.7340   -8.9640  -16.0700 C.ar  1201  0X61201     0.0384
      5  C11       -7.3100   -4.5030  -15.4890 C.ar  1201  0X61201     0.0557
      6  C8        -7.5980   -6.9540  -15.1290 C.2   1201  0X61201     0.2511
      7  C10       -6.7500   -5.7940  -15.4840 C.ar  1201  0X61201     0.0736
      8  C12       -6.5250   -3.4120  -15.8140 C.ar  1201  0X61201    -0.0252
      9  C13       -5.1770   -3.5900  -16.1520 C.ar  1201  0X61201     0.0546
     10  N3       -10.3280  -11.2080  -16.1990 N.ar  1201  0X61201    -0.2400
     11  C1        -9.4870   -9.3840  -14.9550 C.ar  1201  0X61201    -0.0222
     12  C2       -10.2740  -10.5230  -15.0600 C.ar  1201  0X61201     0.0314
     13  N7        -7.9330   -7.8120  -16.1230 N.am  1201  0X61201    -0.2813
     14  O9        -7.9630   -7.0850  -13.9710 O.2   1201  0X61201    -0.2698
     15  C15       -5.3980   -5.9700  -15.8370 C.ar  1201  0X61201     0.0557
     16 CL1        -4.6910   -7.5500  -15.8820 Cl    1201  0X61201    -0.0827
     17  C17       -4.3670   -2.4620  -16.4880 C.1   1201  0X61201     0.0992
     18  N18       -3.7160   -1.5720  -16.7520 N.1   1201  0X61201    -0.1909
     19 CL2        -8.9850   -4.2690  -15.0940 Cl    1201  0X61201    -0.0827
     20  N20       -9.7530  -11.6350  -18.4470 N.am  1201  0X61201    -0.2701
     21  C21       -8.7770  -11.8630  -19.3710 C.2   1201  0X61201     0.2213
     22  O22       -7.6650  -11.3590  -19.2850 O.2   1201  0X61201    -0.2751
     23  C23       -9.1230  -12.7580  -20.5430 C.3   1201  0X61201     0.0360
     24  C24       -8.4290  -12.5480  -21.8920 C.3   1201  0X61201    -0.0412
     25  C25       -8.0810  -13.7660  -21.0310 C.3   1201  0X61201    -0.0412
     26  H         -3.6240   -5.0040  -16.4160 H     1201  0X61201     0.0645
     27  H         -8.3410   -9.3990  -18.0970 H     1201  0X61201     0.0671
     28  H         -6.9330   -2.4640  -15.8080 H     1201  0X61201     0.0645
     29  H         -9.4540   -8.8520  -14.0720 H     1201  0X61201     0.0651
     30  H        -10.8230  -10.8410  -14.2460 H     1201  0X61201     0.0831
     31  H         -7.5620   -7.5970  -17.0090 H     1201  0X61201     0.1551
     32  H        -10.6250  -12.0620  -18.6100 H     1201  0X61201     0.1562
     33  H        -10.1430  -12.8100  -20.2240 H     1201  0X61201     0.0394
     34  H         -8.9780  -12.6750  -22.8020 H     1201  0X61201     0.0273
     35  H         -7.8700  -11.7530  -22.3400 H     1201  0X61201     0.0273
     36  H         -7.1280  -13.8260  -20.5490 H     1201  0X61201     0.0273
     37  H         -8.0680  -14.8240  -21.1880 H     1201  0X61201     0.0273
@<TRIPOS>BOND
     1     1    20    1
     2     1     3   ar
     3     1    10   ar
     4     2     9   ar
     5     2    15   ar
     6     2    26    1
     7     3     4   ar
     8     3    27    1
     9     4    13    1
    10     4    11   ar
    11     5     8   ar
    12     5     7   ar
    13     5    19    1
    14     6    13   am
    15     6     7    1
    16     6    14    2
    17     7    15   ar
    18     8     9   ar
    19     8    28    1
    20     9    17    1
    21    10    12   ar
    22    11    12   ar
    23    11    29    1
    24    12    30    1
    25    13    31    1
    26    15    16    1
    27    17    18    3
    28    20    21   am
    29    20    32    1
    30    21    23    1
    31    21    22    2
    32    23    24    1
    33    23    25    1
    34    23    33    1
    35    24    25    1
    36    24    34    1
    37    24    35    1
    38    25    36    1
    39    25    37    1
