@<TRIPOS>MOLECULE
ligand_0X5.pdb
 23 25 0 0 0
SMALL
GASTEIGER

@<TRIPOS>ATOM
      1  C4        -6.7680   -6.0290  -15.4960 C.ar  1201  0X51201     0.0765
      2  C5        -7.3630   -4.7560  -15.5870 C.ar  1201  0X51201     0.0629
      3  C6        -6.5920   -3.6260  -15.8250 C.ar  1201  0X51201     0.0116
      4  C11       -8.7620   -9.1860  -16.0280 C.ar  1201  0X51201     0.0781
      5  C8        -7.6480   -7.1690  -15.1630 C.2   1201  0X51201     0.2706
      6  C12       -9.5760   -9.5140  -14.9230 C.ar  1201  0X51201     0.0374
      7  C13      -10.4480  -10.5960  -15.0330 C.ar  1201  0X51201     0.1017
      8  C3        -5.3790   -6.1530  -15.6880 C.ar  1201  0X51201     0.0629
      9  C1        -5.2250   -3.7570  -16.0030 C.ar  1201  0X51201     0.0017
     10  C2        -4.6220   -5.0120  -15.9350 C.ar  1201  0X51201     0.0116
     11 CL1        -9.0780   -4.6020  -15.4470 Cl    1201  0X51201    -0.0821
     12  O9        -8.1400   -7.2160  -14.0310 O.2   1201  0X51201    -0.2680
     13  N10       -7.9150   -8.0780  -16.1160 N.am  1201  0X51201    -0.1753
     14  N14      -10.4840  -11.3230  -16.1490 N.ar  1201  0X51201    -0.2272
     15  C15       -9.7280  -11.0610  -17.2160 C.ar  1201  0X51201     0.1558
     16  C16       -8.8640   -9.9630  -17.1810 C.ar  1201  0X51201     0.0528
     17  N17       -9.8320  -11.8770  -18.3640 N.am  1201  0X51201    -0.1603
     18  C18       -8.8750  -11.9800  -19.3360 C.2   1201  0X51201     0.2464
     19  O19       -7.8420  -11.3390  -19.2710 O.2   1201  0X51201    -0.2730
     20  C20       -9.0940  -12.9030  -20.5280 C.3   1201  0X51201     0.0786
     21  C21       -8.4480  -12.5430  -21.8730 C.3   1201  0X51201     0.0096
     22  C22       -7.9000  -13.7090  -21.0550 C.3   1201  0X51201     0.0096
     23 CL2        -4.5810   -7.6960  -15.6770 Cl    1201  0X51201    -0.0821
@<TRIPOS>BOND
     1    21    22    1
     2    21    20    1
     3    22    20    1
     4    20    18    1
     5    18    19    2
     6    18    17   am
     7    17    15    1
     8    15    16   ar
     9    15    14   ar
    10    16     4   ar
    11    14     7   ar
    12    13     4    1
    13    13     5   am
    14     4     6   ar
    15     9    10   ar
    16     9     3   ar
    17    10     8   ar
    18     3     2   ar
    19     8    23    1
    20     8     1   ar
    21     2     1   ar
    22     2    11    1
    23     1     5    1
    24     5    12    2
    25     7     6   ar
